[General]
network = tszdk_praktika2
parallel-simulation = false
parsim-num-partitions = 4
sim-time-limit = 60s



# Force normal ARP
*.*.ipv4.arp.typename = "Arp"

###################################
## TCP ASIMETRIKOA! VV
###################################

# TCP client host
*.auzoa_2lan2host1.ipv4.address = "10.2.2.1"
*.auzoa_2lan1host1.ipv4.netmask = "255.255.255.0"
*.auzoa_2lan1host1.ipv4.gateway = "10.1.23.1"

# TCP server
*.server1_23.ipv4.address = "10.23.1.1"
*.server1_23.ipv4.netmask = "255.255.255.0"
*.server1_23.ipv4.gateway = "10.1.23.1"

# Gateway router
*.auzoa_23router.ipv4.address = "10.1.23.1"


# TCP server on server1_23
*.server1_23.numApps = 1
*.server1_23.app[0].typename = "TcpServerApp"
*.server1_23.app[0].listener.localPort = 80
*.server1_23.app[0].connection[*].source.packetLength = 1500B
*.server1_23.app[0].connection[*].source.productionInterval = 0.001s
*.server1_23.app[0].listener.serverConnectionModuleType = "inet.applications.tcpapp.TcpRequestResponseApp"

#Token asko sortu jasotako pakete bakoitzeko, behar bezain paketeak sortzeko bueltan
*.server1_23.app[0].connection[*].sink.tokenGenerator[*].numTokensPerPacket = 300000
#Egia esanda, ez dakit hau errorea konpontzen laguntzen duen ala ez
*.server1_23.app[0].connection[*].sink*.classifier.numOutputs = 64
#Bueltan behar den paketeen maiztasuna ~0.000967s
*.server1_23.app[0].connection[*].source.provider[*].providingInterval = uniform(0.0008s, 0.0012s)
#Pakete tamaina estandarra
*.server1_23.app[0].connection[*].source.provider[*].packetLength = intuniform(1400B, 1500B)

## Bezero honek 40 bezeroren trafikoa simulatzen du, dena zerbitzari berarekin batera.
*.auzoa_2lan2host1.numApps = 40
*.auzoa_2lan2host1.app[0].typename = "TcpClientApp"
*.auzoa_2lan2host1.app[0].io.connectAddress = "server1_23"
*.auzoa_2lan2host1.app[0].io.connectPort = 80
*.auzoa_2lan2host1.app[0].numRequestsPerSession = exponential(100)  # HTTP 1.1, with keepalive
*.auzoa_2lan2host1.app[0].source.packetLength = intuniform(100B, 200B)
*.auzoa_2lan2host1.app[0].source.productionInterval = uniform(1s, 3s)
*.auzoa_2lan2host1.app[0].source.packetData = intuniform(0, 1)
*.auzoa_2lan2host1.app[1].typename = "TcpClientApp"
*.auzoa_2lan2host1.app[1].io.connectAddress = "server1_23"
*.auzoa_2lan2host1.app[1].io.connectPort = 80
*.auzoa_2lan2host1.app[1].numRequestsPerSession = exponential(100)  # HTTP 1.1, with keepalive
*.auzoa_2lan2host1.app[1].source.packetLength = intuniform(100B, 200B)
*.auzoa_2lan2host1.app[1].source.productionInterval = uniform(1s, 3s)
*.auzoa_2lan2host1.app[1].source.packetData = intuniform(0, 1)
*.auzoa_2lan2host1.app[2].typename = "TcpClientApp"
*.auzoa_2lan2host1.app[2].io.connectAddress = "server1_23"
*.auzoa_2lan2host1.app[2].io.connectPort = 80
*.auzoa_2lan2host1.app[2].numRequestsPerSession = exponential(100)  # HTTP 1.1, with keepalive
*.auzoa_2lan2host1.app[2].source.packetLength = intuniform(100B, 200B)
*.auzoa_2lan2host1.app[2].source.productionInterval = uniform(1s, 3s)
*.auzoa_2lan2host1.app[2].source.packetData = intuniform(0, 1)
*.auzoa_2lan2host1.app[3].typename = "TcpClientApp"
*.auzoa_2lan2host1.app[3].io.connectAddress = "server1_23"
*.auzoa_2lan2host1.app[3].io.connectPort = 80
*.auzoa_2lan2host1.app[3].numRequestsPerSession = exponential(100)  # HTTP 1.1, with keepalive
*.auzoa_2lan2host1.app[3].source.packetLength = intuniform(100B, 200B)
*.auzoa_2lan2host1.app[3].source.productionInterval = uniform(1s, 3s)
*.auzoa_2lan2host1.app[3].source.packetData = intuniform(0, 1)
*.auzoa_2lan2host1.app[4].typename = "TcpClientApp"
*.auzoa_2lan2host1.app[4].io.connectAddress = "server1_23"
*.auzoa_2lan2host1.app[4].io.connectPort = 80
*.auzoa_2lan2host1.app[4].numRequestsPerSession = exponential(100)  # HTTP 1.1, with keepalive
*.auzoa_2lan2host1.app[4].source.packetLength = intuniform(100B, 200B)
*.auzoa_2lan2host1.app[4].source.productionInterval = uniform(1s, 3s)
*.auzoa_2lan2host1.app[4].source.packetData = intuniform(0, 1)
*.auzoa_2lan2host1.app[5].typename = "TcpClientApp"
*.auzoa_2lan2host1.app[5].io.connectAddress = "server1_23"
*.auzoa_2lan2host1.app[5].io.connectPort = 80
*.auzoa_2lan2host1.app[5].numRequestsPerSession = exponential(100)  # HTTP 1.1, with keepalive
*.auzoa_2lan2host1.app[5].source.packetLength = intuniform(150B, 250B)
*.auzoa_2lan2host1.app[5].source.productionInterval = uniform(1s, 3s)
*.auzoa_2lan2host1.app[5].source.packetData = intuniform(0, 1)
*.auzoa_2lan2host1.app[6].typename = "TcpClientApp"
*.auzoa_2lan2host1.app[6].io.connectAddress = "server1_23"
*.auzoa_2lan2host1.app[6].io.connectPort = 80
*.auzoa_2lan2host1.app[6].numRequestsPerSession = exponential(100)  # HTTP 1.1, with keepalive
*.auzoa_2lan2host1.app[6].source.packetLength = intuniform(100B, 200B)
*.auzoa_2lan2host1.app[6].source.productionInterval = uniform(1s, 3s)
*.auzoa_2lan2host1.app[6].source.packetData = intuniform(0, 1)
*.auzoa_2lan2host1.app[7].typename = "TcpClientApp"
*.auzoa_2lan2host1.app[7].io.connectAddress = "server1_23"
*.auzoa_2lan2host1.app[7].io.connectPort = 80
*.auzoa_2lan2host1.app[7].numRequestsPerSession = exponential(100)  # HTTP 1.1, with keepalive
*.auzoa_2lan2host1.app[7].source.packetLength = intuniform(100B, 200B)
*.auzoa_2lan2host1.app[7].source.productionInterval = uniform(1s, 3s)
*.auzoa_2lan2host1.app[7].source.packetData = intuniform(0, 1)
*.auzoa_2lan2host1.app[8].typename = "TcpClientApp"
*.auzoa_2lan2host1.app[8].io.connectAddress = "server1_23"
*.auzoa_2lan2host1.app[8].io.connectPort = 80
*.auzoa_2lan2host1.app[8].numRequestsPerSession = exponential(100)  # HTTP 1.1, with keepalive
*.auzoa_2lan2host1.app[8].source.packetLength = intuniform(100B, 200B)
*.auzoa_2lan2host1.app[8].source.productionInterval = uniform(1s, 3s)
*.auzoa_2lan2host1.app[8].source.packetData = intuniform(0, 1)
*.auzoa_2lan2host1.app[9].typename = "TcpClientApp"
*.auzoa_2lan2host1.app[9].io.connectAddress = "server1_23"
*.auzoa_2lan2host1.app[9].io.connectPort = 80
*.auzoa_2lan2host1.app[9].numRequestsPerSession = exponential(100)  # HTTP 1.1, with keepalive
*.auzoa_2lan2host1.app[9].source.packetLength = intuniform(100B, 200B)
*.auzoa_2lan2host1.app[9].source.productionInterval = uniform(1s, 3s)
*.auzoa_2lan2host1.app[9].source.packetData = intuniform(0, 1)
*.auzoa_2lan2host1.app[10].typename = "TcpClientApp"
*.auzoa_2lan2host1.app[10].io.connectAddress = "server1_23"
*.auzoa_2lan2host1.app[10].io.connectPort = 80
*.auzoa_2lan2host1.app[10].numRequestsPerSession = exponential(100)  # HTTP 1.1, with keepalive
*.auzoa_2lan2host1.app[10].source.packetLength = intuniform(100B, 200B)
*.auzoa_2lan2host1.app[10].source.productionInterval = uniform(1s, 3s)
*.auzoa_2lan2host1.app[10].source.packetData = intuniform(0, 1)
*.auzoa_2lan2host1.app[11].typename = "TcpClientApp"
*.auzoa_2lan2host1.app[11].io.connectAddress = "server1_23"
*.auzoa_2lan2host1.app[11].io.connectPort = 80
*.auzoa_2lan2host1.app[11].numRequestsPerSession = exponential(100)  # HTTP 1.1, with keepalive
*.auzoa_2lan2host1.app[11].source.packetLength = intuniform(100B, 200B)
*.auzoa_2lan2host1.app[11].source.productionInterval = uniform(1s, 3s)
*.auzoa_2lan2host1.app[11].source.packetData = intuniform(0, 1)
*.auzoa_2lan2host1.app[12].typename = "TcpClientApp"
*.auzoa_2lan2host1.app[12].io.connectAddress = "server1_23"
*.auzoa_2lan2host1.app[12].io.connectPort = 80
*.auzoa_2lan2host1.app[12].numRequestsPerSession = exponential(100)  # HTTP 1.1, with keepalive
*.auzoa_2lan2host1.app[12].source.packetLength = intuniform(100B, 200B)
*.auzoa_2lan2host1.app[12].source.productionInterval = uniform(1s, 3s)
*.auzoa_2lan2host1.app[12].source.packetData = intuniform(0, 1)
*.auzoa_2lan2host1.app[13].typename = "TcpClientApp"
*.auzoa_2lan2host1.app[13].io.connectAddress = "server1_23"
*.auzoa_2lan2host1.app[13].io.connectPort = 80
*.auzoa_2lan2host1.app[13].numRequestsPerSession = exponential(100)  # HTTP 1.1, with keepalive
*.auzoa_2lan2host1.app[13].source.packetLength = intuniform(100B, 200B)
*.auzoa_2lan2host1.app[13].source.productionInterval = uniform(1s, 3s)
*.auzoa_2lan2host1.app[13].source.packetData = intuniform(0, 1)
*.auzoa_2lan2host1.app[14].typename = "TcpClientApp"
*.auzoa_2lan2host1.app[14].io.connectAddress = "server1_23"
*.auzoa_2lan2host1.app[14].io.connectPort = 80
*.auzoa_2lan2host1.app[14].numRequestsPerSession = exponential(100)  # HTTP 1.1, with keepalive
*.auzoa_2lan2host1.app[14].source.packetLength = intuniform(100B, 200B)
*.auzoa_2lan2host1.app[14].source.productionInterval = uniform(1s, 3s)
*.auzoa_2lan2host1.app[14].source.packetData = intuniform(0, 1)
*.auzoa_2lan2host1.app[15].typename = "TcpClientApp"
*.auzoa_2lan2host1.app[15].io.connectAddress = "server1_23"
*.auzoa_2lan2host1.app[15].io.connectPort = 80
*.auzoa_2lan2host1.app[15].numRequestsPerSession = exponential(100)  # HTTP 1.1, with keepalive
*.auzoa_2lan2host1.app[15].source.packetLength = intuniform(150B, 250B)
*.auzoa_2lan2host1.app[15].source.productionInterval = uniform(1s, 3s)
*.auzoa_2lan2host1.app[15].source.packetData = intuniform(0, 1)
*.auzoa_2lan2host1.app[16].typename = "TcpClientApp"
*.auzoa_2lan2host1.app[16].io.connectAddress = "server1_23"
*.auzoa_2lan2host1.app[16].io.connectPort = 80
*.auzoa_2lan2host1.app[16].numRequestsPerSession = exponential(100)  # HTTP 1.1, with keepalive
*.auzoa_2lan2host1.app[16].source.packetLength = intuniform(100B, 200B)
*.auzoa_2lan2host1.app[16].source.productionInterval = uniform(1s, 3s)
*.auzoa_2lan2host1.app[16].source.packetData = intuniform(0, 1)
*.auzoa_2lan2host1.app[17].typename = "TcpClientApp"
*.auzoa_2lan2host1.app[17].io.connectAddress = "server1_23"
*.auzoa_2lan2host1.app[17].io.connectPort = 80
*.auzoa_2lan2host1.app[17].numRequestsPerSession = exponential(100)  # HTTP 1.1, with keepalive
*.auzoa_2lan2host1.app[17].source.packetLength = intuniform(100B, 200B)
*.auzoa_2lan2host1.app[17].source.productionInterval = uniform(1s, 3s)
*.auzoa_2lan2host1.app[17].source.packetData = intuniform(0, 1)
*.auzoa_2lan2host1.app[18].typename = "TcpClientApp"
*.auzoa_2lan2host1.app[18].io.connectAddress = "server1_23"
*.auzoa_2lan2host1.app[18].io.connectPort = 80
*.auzoa_2lan2host1.app[18].numRequestsPerSession = exponential(100)  # HTTP 1.1, with keepalive
*.auzoa_2lan2host1.app[18].source.packetLength = intuniform(100B, 200B)
*.auzoa_2lan2host1.app[18].source.productionInterval = uniform(1s, 3s)
*.auzoa_2lan2host1.app[18].source.packetData = intuniform(0, 1)
*.auzoa_2lan2host1.app[19].typename = "TcpClientApp"
*.auzoa_2lan2host1.app[19].io.connectAddress = "server1_23"
*.auzoa_2lan2host1.app[19].io.connectPort = 80
*.auzoa_2lan2host1.app[19].numRequestsPerSession = exponential(100)  # HTTP 1.1, with keepalive
*.auzoa_2lan2host1.app[19].source.packetLength = intuniform(100B, 200B)
*.auzoa_2lan2host1.app[19].source.productionInterval = uniform(1s, 3s)
*.auzoa_2lan2host1.app[19].source.packetData = intuniform(0, 1)
*.auzoa_2lan2host1.app[20].typename = "TcpClientApp"
*.auzoa_2lan2host1.app[20].io.connectAddress = "server1_23"
*.auzoa_2lan2host1.app[20].io.connectPort = 80
*.auzoa_2lan2host1.app[20].numRequestsPerSession = exponential(100)  # HTTP 1.1, with keepalive
*.auzoa_2lan2host1.app[20].source.packetLength = intuniform(100B, 200B)
*.auzoa_2lan2host1.app[20].source.productionInterval = uniform(1s, 3s)
*.auzoa_2lan2host1.app[20].source.packetData = intuniform(0, 1)
*.auzoa_2lan2host1.app[21].typename = "TcpClientApp"
*.auzoa_2lan2host1.app[21].io.connectAddress = "server1_23"
*.auzoa_2lan2host1.app[21].io.connectPort = 80
*.auzoa_2lan2host1.app[21].numRequestsPerSession = exponential(100)  # HTTP 1.1, with keepalive
*.auzoa_2lan2host1.app[21].source.packetLength = intuniform(100B, 200B)
*.auzoa_2lan2host1.app[21].source.productionInterval = uniform(1s, 3s)
*.auzoa_2lan2host1.app[21].source.packetData = intuniform(0, 1)
*.auzoa_2lan2host1.app[22].typename = "TcpClientApp"
*.auzoa_2lan2host1.app[22].io.connectAddress = "server1_23"
*.auzoa_2lan2host1.app[22].io.connectPort = 80
*.auzoa_2lan2host1.app[22].numRequestsPerSession = exponential(100)  # HTTP 1.1, with keepalive
*.auzoa_2lan2host1.app[22].source.packetLength = intuniform(100B, 200B)
*.auzoa_2lan2host1.app[22].source.productionInterval = uniform(1s, 3s)
*.auzoa_2lan2host1.app[22].source.packetData = intuniform(0, 1)
*.auzoa_2lan2host1.app[23].typename = "TcpClientApp"
*.auzoa_2lan2host1.app[23].io.connectAddress = "server1_23"
*.auzoa_2lan2host1.app[23].io.connectPort = 80
*.auzoa_2lan2host1.app[23].numRequestsPerSession = exponential(100)  # HTTP 1.1, with keepalive
*.auzoa_2lan2host1.app[23].source.packetLength = intuniform(100B, 200B)
*.auzoa_2lan2host1.app[23].source.productionInterval = uniform(1s, 3s)
*.auzoa_2lan2host1.app[23].source.packetData = intuniform(0, 1)
*.auzoa_2lan2host1.app[24].typename = "TcpClientApp"
*.auzoa_2lan2host1.app[24].io.connectAddress = "server1_23"
*.auzoa_2lan2host1.app[24].io.connectPort = 80
*.auzoa_2lan2host1.app[24].numRequestsPerSession = exponential(100)  # HTTP 1.1, with keepalive
*.auzoa_2lan2host1.app[24].source.packetLength = intuniform(100B, 200B)
*.auzoa_2lan2host1.app[24].source.productionInterval = uniform(1s, 3s)
*.auzoa_2lan2host1.app[24].source.packetData = intuniform(0, 1)
*.auzoa_2lan2host1.app[25].typename = "TcpClientApp"
*.auzoa_2lan2host1.app[25].io.connectAddress = "server1_23"
*.auzoa_2lan2host1.app[25].io.connectPort = 80
*.auzoa_2lan2host1.app[25].numRequestsPerSession = exponential(100)  # HTTP 1.1, with keepalive
*.auzoa_2lan2host1.app[25].source.packetLength = intuniform(150B, 250B)
*.auzoa_2lan2host1.app[25].source.productionInterval = uniform(1s, 3s)
*.auzoa_2lan2host1.app[25].source.packetData = intuniform(0, 1)
*.auzoa_2lan2host1.app[26].typename = "TcpClientApp"
*.auzoa_2lan2host1.app[26].io.connectAddress = "server1_23"
*.auzoa_2lan2host1.app[26].io.connectPort = 80
*.auzoa_2lan2host1.app[26].numRequestsPerSession = exponential(100)  # HTTP 1.1, with keepalive
*.auzoa_2lan2host1.app[26].source.packetLength = intuniform(100B, 200B)
*.auzoa_2lan2host1.app[26].source.productionInterval = uniform(1s, 3s)
*.auzoa_2lan2host1.app[26].source.packetData = intuniform(0, 1)
*.auzoa_2lan2host1.app[27].typename = "TcpClientApp"
*.auzoa_2lan2host1.app[27].io.connectAddress = "server1_23"
*.auzoa_2lan2host1.app[27].io.connectPort = 80
*.auzoa_2lan2host1.app[27].numRequestsPerSession = exponential(100)  # HTTP 1.1, with keepalive
*.auzoa_2lan2host1.app[27].source.packetLength = intuniform(100B, 200B)
*.auzoa_2lan2host1.app[27].source.productionInterval = uniform(1s, 3s)
*.auzoa_2lan2host1.app[27].source.packetData = intuniform(0, 1)
*.auzoa_2lan2host1.app[28].typename = "TcpClientApp"
*.auzoa_2lan2host1.app[28].io.connectAddress = "server1_23"
*.auzoa_2lan2host1.app[28].io.connectPort = 80
*.auzoa_2lan2host1.app[28].numRequestsPerSession = exponential(100)  # HTTP 1.1, with keepalive
*.auzoa_2lan2host1.app[28].source.packetLength = intuniform(100B, 200B)
*.auzoa_2lan2host1.app[28].source.productionInterval = uniform(1s, 3s)
*.auzoa_2lan2host1.app[28].source.packetData = intuniform(0, 1)
*.auzoa_2lan2host1.app[29].typename = "TcpClientApp"
*.auzoa_2lan2host1.app[29].io.connectAddress = "server1_23"
*.auzoa_2lan2host1.app[29].io.connectPort = 80
*.auzoa_2lan2host1.app[29].numRequestsPerSession = exponential(100)  # HTTP 1.1, with keepalive
*.auzoa_2lan2host1.app[29].source.packetLength = intuniform(100B, 200B)
*.auzoa_2lan2host1.app[29].source.productionInterval = uniform(1s, 3s)
*.auzoa_2lan2host1.app[29].source.packetData = intuniform(0, 1)
*.auzoa_2lan2host1.app[30].typename = "TcpClientApp"
*.auzoa_2lan2host1.app[30].io.connectAddress = "server1_23"
*.auzoa_2lan2host1.app[30].io.connectPort = 80
*.auzoa_2lan2host1.app[30].numRequestsPerSession = exponential(100)  # HTTP 1.1, with keepalive
*.auzoa_2lan2host1.app[30].source.packetLength = intuniform(100B, 200B)
*.auzoa_2lan2host1.app[30].source.productionInterval = uniform(1s, 3s)
*.auzoa_2lan2host1.app[30].source.packetData = intuniform(0, 1)
*.auzoa_2lan2host1.app[31].typename = "TcpClientApp"
*.auzoa_2lan2host1.app[31].io.connectAddress = "server1_23"
*.auzoa_2lan2host1.app[31].io.connectPort = 80
*.auzoa_2lan2host1.app[31].numRequestsPerSession = exponential(100)  # HTTP 1.1, with keepalive
*.auzoa_2lan2host1.app[31].source.packetLength = intuniform(100B, 200B)
*.auzoa_2lan2host1.app[31].source.productionInterval = uniform(1s, 3s)
*.auzoa_2lan2host1.app[31].source.packetData = intuniform(0, 1)
*.auzoa_2lan2host1.app[32].typename = "TcpClientApp"
*.auzoa_2lan2host1.app[32].io.connectAddress = "server1_23"
*.auzoa_2lan2host1.app[32].io.connectPort = 80
*.auzoa_2lan2host1.app[32].numRequestsPerSession = exponential(100)  # HTTP 1.1, with keepalive
*.auzoa_2lan2host1.app[32].source.packetLength = intuniform(100B, 200B)
*.auzoa_2lan2host1.app[32].source.productionInterval = uniform(1s, 3s)
*.auzoa_2lan2host1.app[32].source.packetData = intuniform(0, 1)
*.auzoa_2lan2host1.app[33].typename = "TcpClientApp"
*.auzoa_2lan2host1.app[33].io.connectAddress = "server1_23"
*.auzoa_2lan2host1.app[33].io.connectPort = 80
*.auzoa_2lan2host1.app[33].numRequestsPerSession = exponential(100)  # HTTP 1.1, with keepalive
*.auzoa_2lan2host1.app[33].source.packetLength = intuniform(100B, 200B)
*.auzoa_2lan2host1.app[33].source.productionInterval = uniform(1s, 3s)
*.auzoa_2lan2host1.app[33].source.packetData = intuniform(0, 1)
*.auzoa_2lan2host1.app[34].typename = "TcpClientApp"
*.auzoa_2lan2host1.app[34].io.connectAddress = "server1_23"
*.auzoa_2lan2host1.app[34].io.connectPort = 80
*.auzoa_2lan2host1.app[34].numRequestsPerSession = exponential(100)  # HTTP 1.1, with keepalive
*.auzoa_2lan2host1.app[34].source.packetLength = intuniform(100B, 200B)
*.auzoa_2lan2host1.app[34].source.productionInterval = uniform(1s, 3s)
*.auzoa_2lan2host1.app[34].source.packetData = intuniform(0, 1)
*.auzoa_2lan2host1.app[35].typename = "TcpClientApp"
*.auzoa_2lan2host1.app[35].io.connectAddress = "server1_23"
*.auzoa_2lan2host1.app[35].io.connectPort = 80
*.auzoa_2lan2host1.app[35].numRequestsPerSession = exponential(100)  # HTTP 1.1, with keepalive
*.auzoa_2lan2host1.app[35].source.packetLength = intuniform(150B, 250B)
*.auzoa_2lan2host1.app[35].source.productionInterval = uniform(1s, 3s)
*.auzoa_2lan2host1.app[35].source.packetData = intuniform(0, 1)
*.auzoa_2lan2host1.app[36].typename = "TcpClientApp"
*.auzoa_2lan2host1.app[36].io.connectAddress = "server1_23"
*.auzoa_2lan2host1.app[36].io.connectPort = 80
*.auzoa_2lan2host1.app[36].numRequestsPerSession = exponential(100)  # HTTP 1.1, with keepalive
*.auzoa_2lan2host1.app[36].source.packetLength = intuniform(100B, 200B)
*.auzoa_2lan2host1.app[36].source.productionInterval = uniform(1s, 3s)
*.auzoa_2lan2host1.app[36].source.packetData = intuniform(0, 1)
*.auzoa_2lan2host1.app[37].typename = "TcpClientApp"
*.auzoa_2lan2host1.app[37].io.connectAddress = "server1_23"
*.auzoa_2lan2host1.app[37].io.connectPort = 80
*.auzoa_2lan2host1.app[37].numRequestsPerSession = exponential(100)  # HTTP 1.1, with keepalive
*.auzoa_2lan2host1.app[37].source.packetLength = intuniform(100B, 200B)
*.auzoa_2lan2host1.app[37].source.productionInterval = uniform(1s, 3s)
*.auzoa_2lan2host1.app[37].source.packetData = intuniform(0, 1)
*.auzoa_2lan2host1.app[38].typename = "TcpClientApp"
*.auzoa_2lan2host1.app[38].io.connectAddress = "server1_23"
*.auzoa_2lan2host1.app[38].io.connectPort = 80
*.auzoa_2lan2host1.app[38].numRequestsPerSession = exponential(100)  # HTTP 1.1, with keepalive
*.auzoa_2lan2host1.app[38].source.packetLength = intuniform(100B, 200B)
*.auzoa_2lan2host1.app[38].source.productionInterval = uniform(1s, 3s)
*.auzoa_2lan2host1.app[38].source.packetData = intuniform(0, 1)
*.auzoa_2lan2host1.app[39].typename = "TcpClientApp"
*.auzoa_2lan2host1.app[39].io.connectAddress = "server1_23"
*.auzoa_2lan2host1.app[39].io.connectPort = 80
*.auzoa_2lan2host1.app[39].numRequestsPerSession = exponential(100)  # HTTP 1.1, with keepalive
*.auzoa_2lan2host1.app[39].source.packetLength = intuniform(100B, 200B)
*.auzoa_2lan2host1.app[39].source.productionInterval = uniform(1s, 3s)
*.auzoa_2lan2host1.app[39].source.packetData = intuniform(0, 1)


################################################
## TCP ASIMETRIKOA! ^^
################################################

###################################
## TCP ASIMETRIKOA! VV
###################################

# TCP client host
*.auzoa_1lan1host1.ipv4.address = "10.1.1.1"
*.auzoa_1lan1host1.ipv4.netmask = "255.255.255.0"
*.auzoa_1lan1host1.ipv4.gateway = "10.1.16.1"

# TCP server
*.server1_16.ipv4.address = "10.16.1.1"
*.server1_16.ipv4.netmask = "255.255.255.0"
*.server1_16.ipv4.gateway = "10.1.16.1"

# Gateway router
*.auzoa_16router.ipv4.address = "10.1.16.1"


# TCP server on server1_16
*.server1_16.numApps = 1
*.server1_16.app[0].typename = "TcpServerApp"
*.server1_16.app[0].listener.localPort = 80
*.server1_16.app[0].connection[*].source.packetLength = 1500B
*.server1_16.app[0].connection[*].source.productionInterval = 0.001s
*.server1_16.app[0].listener.serverConnectionModuleType = "inet.applications.tcpapp.TcpRequestResponseApp"

#Token asko sortu jasotako pakete bakoitzeko, behar bezain paketeak sortzeko bueltan
*.server1_16.app[0].connection[*].sink.tokenGenerator[*].numTokensPerPacket = 300000
#Egia esanda, ez dakit hau errorea konpontzen laguntzen duen ala ez
*.server1_16.app[0].connection[*].sink*.classifier.numOutputs = 64
#Bueltan behar den paketeen maiztasuna ~0.000967s
*.server1_16.app[0].connection[*].source.provider[*].providingInterval = uniform(0.0008s, 0.0012s)
#Pakete tamaina estandarra
*.server1_16.app[0].connection[*].source.provider[*].packetLength = intuniform(1400B, 1500B)

## Bezero honek 40 bezeroren trafikoa simulatzen du, dena zerbitzari berarekin batera.
*.auzoa_1lan1host1.numApps = 40
*.auzoa_1lan1host1.app[0].typename = "TcpClientApp"
*.auzoa_1lan1host1.app[0].io.connectAddress = "server1_16"
*.auzoa_1lan1host1.app[0].io.connectPort = 80
*.auzoa_1lan1host1.app[0].numRequestsPerSession = exponential(100)  # HTTP 1.1, with keepalive
*.auzoa_1lan1host1.app[0].source.packetLength = intuniform(100B, 200B)
*.auzoa_1lan1host1.app[0].source.productionInterval = uniform(1s, 3s)
*.auzoa_1lan1host1.app[0].source.packetData = intuniform(0, 1)
*.auzoa_1lan1host1.app[1].typename = "TcpClientApp"
*.auzoa_1lan1host1.app[1].io.connectAddress = "server1_16"
*.auzoa_1lan1host1.app[1].io.connectPort = 80
*.auzoa_1lan1host1.app[1].numRequestsPerSession = exponential(100)  # HTTP 1.1, with keepalive
*.auzoa_1lan1host1.app[1].source.packetLength = intuniform(100B, 200B)
*.auzoa_1lan1host1.app[1].source.productionInterval = uniform(1s, 3s)
*.auzoa_1lan1host1.app[1].source.packetData = intuniform(0, 1)
*.auzoa_1lan1host1.app[2].typename = "TcpClientApp"
*.auzoa_1lan1host1.app[2].io.connectAddress = "server1_16"
*.auzoa_1lan1host1.app[2].io.connectPort = 80
*.auzoa_1lan1host1.app[2].numRequestsPerSession = exponential(100)  # HTTP 1.1, with keepalive
*.auzoa_1lan1host1.app[2].source.packetLength = intuniform(100B, 200B)
*.auzoa_1lan1host1.app[2].source.productionInterval = uniform(1s, 3s)
*.auzoa_1lan1host1.app[2].source.packetData = intuniform(0, 1)
*.auzoa_1lan1host1.app[3].typename = "TcpClientApp"
*.auzoa_1lan1host1.app[3].io.connectAddress = "server1_16"
*.auzoa_1lan1host1.app[3].io.connectPort = 80
*.auzoa_1lan1host1.app[3].numRequestsPerSession = exponential(100)  # HTTP 1.1, with keepalive
*.auzoa_1lan1host1.app[3].source.packetLength = intuniform(100B, 200B)
*.auzoa_1lan1host1.app[3].source.productionInterval = uniform(1s, 3s)
*.auzoa_1lan1host1.app[3].source.packetData = intuniform(0, 1)
*.auzoa_1lan1host1.app[4].typename = "TcpClientApp"
*.auzoa_1lan1host1.app[4].io.connectAddress = "server1_16"
*.auzoa_1lan1host1.app[4].io.connectPort = 80
*.auzoa_1lan1host1.app[4].numRequestsPerSession = exponential(100)  # HTTP 1.1, with keepalive
*.auzoa_1lan1host1.app[4].source.packetLength = intuniform(100B, 200B)
*.auzoa_1lan1host1.app[4].source.productionInterval = uniform(1s, 3s)
*.auzoa_1lan1host1.app[4].source.packetData = intuniform(0, 1)
*.auzoa_1lan1host1.app[5].typename = "TcpClientApp"
*.auzoa_1lan1host1.app[5].io.connectAddress = "server1_16"
*.auzoa_1lan1host1.app[5].io.connectPort = 80
*.auzoa_1lan1host1.app[5].numRequestsPerSession = exponential(100)  # HTTP 1.1, with keepalive
*.auzoa_1lan1host1.app[5].source.packetLength = intuniform(150B, 250B)
*.auzoa_1lan1host1.app[5].source.productionInterval = uniform(1s, 3s)
*.auzoa_1lan1host1.app[5].source.packetData = intuniform(0, 1)
*.auzoa_1lan1host1.app[6].typename = "TcpClientApp"
*.auzoa_1lan1host1.app[6].io.connectAddress = "server1_16"
*.auzoa_1lan1host1.app[6].io.connectPort = 80
*.auzoa_1lan1host1.app[6].numRequestsPerSession = exponential(100)  # HTTP 1.1, with keepalive
*.auzoa_1lan1host1.app[6].source.packetLength = intuniform(100B, 200B)
*.auzoa_1lan1host1.app[6].source.productionInterval = uniform(1s, 3s)
*.auzoa_1lan1host1.app[6].source.packetData = intuniform(0, 1)
*.auzoa_1lan1host1.app[7].typename = "TcpClientApp"
*.auzoa_1lan1host1.app[7].io.connectAddress = "server1_16"
*.auzoa_1lan1host1.app[7].io.connectPort = 80
*.auzoa_1lan1host1.app[7].numRequestsPerSession = exponential(100)  # HTTP 1.1, with keepalive
*.auzoa_1lan1host1.app[7].source.packetLength = intuniform(100B, 200B)
*.auzoa_1lan1host1.app[7].source.productionInterval = uniform(1s, 3s)
*.auzoa_1lan1host1.app[7].source.packetData = intuniform(0, 1)
*.auzoa_1lan1host1.app[8].typename = "TcpClientApp"
*.auzoa_1lan1host1.app[8].io.connectAddress = "server1_16"
*.auzoa_1lan1host1.app[8].io.connectPort = 80
*.auzoa_1lan1host1.app[8].numRequestsPerSession = exponential(100)  # HTTP 1.1, with keepalive
*.auzoa_1lan1host1.app[8].source.packetLength = intuniform(100B, 200B)
*.auzoa_1lan1host1.app[8].source.productionInterval = uniform(1s, 3s)
*.auzoa_1lan1host1.app[8].source.packetData = intuniform(0, 1)
*.auzoa_1lan1host1.app[9].typename = "TcpClientApp"
*.auzoa_1lan1host1.app[9].io.connectAddress = "server1_16"
*.auzoa_1lan1host1.app[9].io.connectPort = 80
*.auzoa_1lan1host1.app[9].numRequestsPerSession = exponential(100)  # HTTP 1.1, with keepalive
*.auzoa_1lan1host1.app[9].source.packetLength = intuniform(100B, 200B)
*.auzoa_1lan1host1.app[9].source.productionInterval = uniform(1s, 3s)
*.auzoa_1lan1host1.app[9].source.packetData = intuniform(0, 1)
*.auzoa_1lan1host1.app[10].typename = "TcpClientApp"
*.auzoa_1lan1host1.app[10].io.connectAddress = "server1_16"
*.auzoa_1lan1host1.app[10].io.connectPort = 80
*.auzoa_1lan1host1.app[10].numRequestsPerSession = exponential(100)  # HTTP 1.1, with keepalive
*.auzoa_1lan1host1.app[10].source.packetLength = intuniform(100B, 200B)
*.auzoa_1lan1host1.app[10].source.productionInterval = uniform(1s, 3s)
*.auzoa_1lan1host1.app[10].source.packetData = intuniform(0, 1)
*.auzoa_1lan1host1.app[11].typename = "TcpClientApp"
*.auzoa_1lan1host1.app[11].io.connectAddress = "server1_16"
*.auzoa_1lan1host1.app[11].io.connectPort = 80
*.auzoa_1lan1host1.app[11].numRequestsPerSession = exponential(100)  # HTTP 1.1, with keepalive
*.auzoa_1lan1host1.app[11].source.packetLength = intuniform(100B, 200B)
*.auzoa_1lan1host1.app[11].source.productionInterval = uniform(1s, 3s)
*.auzoa_1lan1host1.app[11].source.packetData = intuniform(0, 1)
*.auzoa_1lan1host1.app[12].typename = "TcpClientApp"
*.auzoa_1lan1host1.app[12].io.connectAddress = "server1_16"
*.auzoa_1lan1host1.app[12].io.connectPort = 80
*.auzoa_1lan1host1.app[12].numRequestsPerSession = exponential(100)  # HTTP 1.1, with keepalive
*.auzoa_1lan1host1.app[12].source.packetLength = intuniform(100B, 200B)
*.auzoa_1lan1host1.app[12].source.productionInterval = uniform(1s, 3s)
*.auzoa_1lan1host1.app[12].source.packetData = intuniform(0, 1)
*.auzoa_1lan1host1.app[13].typename = "TcpClientApp"
*.auzoa_1lan1host1.app[13].io.connectAddress = "server1_16"
*.auzoa_1lan1host1.app[13].io.connectPort = 80
*.auzoa_1lan1host1.app[13].numRequestsPerSession = exponential(100)  # HTTP 1.1, with keepalive
*.auzoa_1lan1host1.app[13].source.packetLength = intuniform(100B, 200B)
*.auzoa_1lan1host1.app[13].source.productionInterval = uniform(1s, 3s)
*.auzoa_1lan1host1.app[13].source.packetData = intuniform(0, 1)
*.auzoa_1lan1host1.app[14].typename = "TcpClientApp"
*.auzoa_1lan1host1.app[14].io.connectAddress = "server1_16"
*.auzoa_1lan1host1.app[14].io.connectPort = 80
*.auzoa_1lan1host1.app[14].numRequestsPerSession = exponential(100)  # HTTP 1.1, with keepalive
*.auzoa_1lan1host1.app[14].source.packetLength = intuniform(100B, 200B)
*.auzoa_1lan1host1.app[14].source.productionInterval = uniform(1s, 3s)
*.auzoa_1lan1host1.app[14].source.packetData = intuniform(0, 1)
*.auzoa_1lan1host1.app[15].typename = "TcpClientApp"
*.auzoa_1lan1host1.app[15].io.connectAddress = "server1_16"
*.auzoa_1lan1host1.app[15].io.connectPort = 80
*.auzoa_1lan1host1.app[15].numRequestsPerSession = exponential(100)  # HTTP 1.1, with keepalive
*.auzoa_1lan1host1.app[15].source.packetLength = intuniform(150B, 250B)
*.auzoa_1lan1host1.app[15].source.productionInterval = uniform(1s, 3s)
*.auzoa_1lan1host1.app[15].source.packetData = intuniform(0, 1)
*.auzoa_1lan1host1.app[16].typename = "TcpClientApp"
*.auzoa_1lan1host1.app[16].io.connectAddress = "server1_16"
*.auzoa_1lan1host1.app[16].io.connectPort = 80
*.auzoa_1lan1host1.app[16].numRequestsPerSession = exponential(100)  # HTTP 1.1, with keepalive
*.auzoa_1lan1host1.app[16].source.packetLength = intuniform(100B, 200B)
*.auzoa_1lan1host1.app[16].source.productionInterval = uniform(1s, 3s)
*.auzoa_1lan1host1.app[16].source.packetData = intuniform(0, 1)
*.auzoa_1lan1host1.app[17].typename = "TcpClientApp"
*.auzoa_1lan1host1.app[17].io.connectAddress = "server1_16"
*.auzoa_1lan1host1.app[17].io.connectPort = 80
*.auzoa_1lan1host1.app[17].numRequestsPerSession = exponential(100)  # HTTP 1.1, with keepalive
*.auzoa_1lan1host1.app[17].source.packetLength = intuniform(100B, 200B)